*HEADING
3D fracture specimen
*NODE, NSET=lattice_nodes
1, 1.500000, 0.000000, 0.000000
2, 0.000000, 0.000000, -1.500000
3, -1.500000, 0.000000, 0.000000
4, 0.000000, 0.000000, 1.500000
5, 0.000000, 1.500000, 0.000000
6, 0.000000, -1.500000, 0.000000
7, 0.000000, 0.000000, 0.000000
8, 1.500000, 0.000000, 3.000000
9, -1.500000, 0.000000, 3.000000
10, 0.000000, 0.000000, 4.500000
11, 0.000000, 1.500000, 3.000000
12, 0.000000, -1.500000, 3.000000
13, 0.000000, 0.000000, 3.000000
14, 1.500000, 3.000000, 0.000000
15, 0.000000, 3.000000, -1.500000
16, -1.500000, 3.000000, 0.000000
17, 0.000000, 3.000000, 1.500000
18, 0.000000, 4.500000, 0.000000
19, 0.000000, 3.000000, 0.000000
20, 1.500000, 3.000000, 3.000000
** ... 779 like lines cut
*ELEMENT, TYPE=B31, ELSET=BEAM
1, 1, 2, 7
2, 2, 3, 7
3, 3, 4, 7
4, 4, 1, 7
5, 1, 5, 7
6, 2, 5, 7
7, 3, 5, 7
8, 4, 5, 7
9, 1, 6, 7
10, 2, 6, 7
11, 3, 6, 7
12, 4, 6, 7
13, 8, 4, 13
14, 4, 9, 13
15, 9, 10, 13
16, 10, 8, 13
17, 8, 11, 13
18, 4, 11, 13
19, 9, 11, 13
20, 10, 11, 13
** ... 1972 like lines cut
*ELSET, ELSET=voxel_strut1
1, 13, 25, 37, 49, 61, 73, 85
97, 109, 121, 133, 145, 157, 169, 181
193, 205, 217, 229, 241, 253, 265, 277
289, 301, 313, 325, 337, 349, 361, 373
385, 397, 409, 421, 433, 445, 457, 469
481, 493, 505, 517, 529, 541, 553, 565
577, 589, 601, 613, 625, 637, 649, 661
673, 685, 697, 709, 721, 733, 745, 757
769, 781, 793, 805, 817, 829, 841, 853
865, 877, 889, 901, 913, 925, 937, 949
961, 973, 985, 997, 1009, 1021, 1033, 1045
1057, 1069, 1081, 1093, 1105, 1117, 1129, 1141
1153, 1165, 1177, 1189, 1201, 1213, 1225, 1237
1249, 1261, 1273, 1285, 1297, 1309, 1321, 1333
1345, 1357, 1369, 1381, 1393, 1405, 1417, 1429
1441, 1453, 1465, 1477, 1489, 1501, 1513, 1525
1537, 1549, 1561, 1573, 1585, 1597, 1609, 1621
1633, 1645, 1657, 1669, 1681, 1693, 1705, 1717
1729, 1741, 1753, 1765, 1777, 1789, 1801, 1813
1825, 1837, 1849, 1861, 1873, 1885, 1897, 1909
1921, 1933, 1945, 1957, 1969, 1981
*BEAM SECTION, SECTION=RECTANGULAR, ELSET=voxel_strut1, MATERIAL=ultem_2200_polyetherimide_E
 .072, .072
 -0.500000, -0.500000, 1.000000
*ELSET, ELSET=voxel_strut2
2, 14, 26, 38, 50, 62, 74, 86
98, 110, 122, 134, 146, 158, 170, 182
194, 206, 218, 230, 242, 254, 266, 278
290, 302, 314, 326, 338, 350, 362, 374
386, 398, 410, 422, 434, 446, 458, 470
482, 494, 506, 518, 530, 542, 554, 566
578, 590, 602, 614, 626, 638, 650, 662
674, 686, 698, 710, 722, 734, 746, 758
770, 782, 794, 806, 818, 830, 842, 854
866, 878, 890, 902, 914, 926, 938, 950
962, 974, 986, 998, 1010, 1022, 1034, 1046
1058, 1070, 1082, 1094, 1106, 1118, 1130, 1142
1154, 1166, 1178, 1190, 1202, 1214, 1226, 1238
1250, 1262, 1274, 1286, 1298, 1310, 1322, 1334
1346, 1358, 1370, 1382, 1394, 1406, 1418, 1430
1442, 1454, 1466, 1478, 1490, 1502, 1514, 1526
1538, 1550, 1562, 1574, 1586, 1598, 1610, 1622
1634, 1646, 1658, 1670, 1682, 1694, 1706, 1718
1730, 1742, 1754, 1766, 1778, 1790, 1802, 1814
1826, 1838, 1850, 1862, 1874, 1886, 1898, 1910
1922, 1934, 1946, 1958, 1970, 1982
*BEAM SECTION, SECTION=RECTANGULAR, ELSET=voxel_strut2, MATERIAL=ultem_2200_polyetherimide_E
 .072, .072
 0.500000, -0.500000, 1.000000
*ELSET, ELSET=voxel_strut3
3, 15, 27, 39, 51, 63, 75, 87
99, 111, 123, 135, 147, 159, 171, 183
195, 207, 219, 231, 243, 255, 267, 279
291, 303, 315, 327, 339, 351, 363, 375
387, 399, 411, 423, 435, 447, 459, 471
483, 495, 507, 519, 531, 543, 555, 567
579, 591, 603, 615, 627, 639, 651, 663
675, 687, 699, 711, 723, 735, 747, 759
771, 783, 795, 807, 819, 831, 843, 855
867, 879, 891, 903, 915, 927, 939, 951
963, 975, 987, 999, 1011, 1023, 1035, 1047
1059, 1071, 1083, 1095, 1107, 1119, 1131, 1143
1155, 1167, 1179, 1191, 1203, 1215, 1227, 1239
1251, 1263, 1275, 1287, 1299, 1311, 1323, 1335
1347, 1359, 1371, 1383, 1395, 1407, 1419, 1431
1443, 1455, 1467, 1479, 1491, 1503, 1515, 1527
1539, 1551, 1563, 1575, 1587, 1599, 1611, 1623
1635, 1647, 1659, 1671, 1683, 1695, 1707, 1719
1731, 1743, 1755, 1767, 1779, 1791, 1803, 1815
1827, 1839, 1851, 1863, 1875, 1887, 1899, 1911
1923, 1935, 1947, 1959, 1971, 1983
*BEAM SECTION, SECTION=RECTANGULAR, ELSET=voxel_strut3, MATERIAL=ultem_2200_polyetherimide_E
 .072, .072
 -0.500000, -0.500000, 1.000000
*ELSET, ELSET=voxel_strut4
4, 16, 28, 40, 52, 64, 76, 88
100, 112, 124, 136, 148, 160, 172, 184
196, 208, 220, 232, 244, 256, 268, 280
292, 304, 316, 328, 340, 352, 364, 376
388, 400, 412, 424, 436, 448, 460, 472
484, 496, 508, 520, 532, 544, 556, 568
580, 592, 604, 616, 628, 640, 652, 664
676, 688, 700, 712, 724, 736, 748, 760
772, 784, 796, 808, 820, 832, 844, 856
868, 880, 892, 904, 916, 928, 940, 952
964, 976, 988, 1000, 1012, 1024, 1036, 1048
1060, 1072, 1084, 1096, 1108, 1120, 1132, 1144
1156, 1168, 1180, 1192, 1204, 1216, 1228, 1240
1252, 1264, 1276, 1288, 1300, 1312, 1324, 1336
1348, 1360, 1372, 1384, 1396, 1408, 1420, 1432
1444, 1456, 1468, 1480, 1492, 1504, 1516, 1528
1540, 1552, 1564, 1576, 1588, 1600, 1612, 1624
1636, 1648, 1660, 1672, 1684, 1696, 1708, 1720
1732, 1744, 1756, 1768, 1780, 1792, 1804, 1816
1828, 1840, 1852, 1864, 1876, 1888, 1900, 1912
1924, 1936, 1948, 1960, 1972, 1984
*BEAM SECTION, SECTION=RECTANGULAR, ELSET=voxel_strut4, MATERIAL=ultem_2200_polyetherimide_E
 .072, .072
 0.500000, -0.500000, 1.000000
*ELSET, ELSET=voxel_strut5
5, 17, 29, 41, 53, 65, 77, 89
101, 113, 125, 137, 149, 161, 173, 185
197, 209, 221, 233, 245, 257, 269, 281
293, 305, 317, 329, 341, 353, 365, 377
389, 401, 413, 425, 437, 449, 461, 473
485, 497, 509, 521, 533, 545, 557, 569
581, 593, 605, 617, 629, 641, 653, 665
677, 689, 701, 713, 725, 737, 749, 761
773, 785, 797, 809, 821, 833, 845, 857
869, 881, 893, 905, 917, 929, 941, 953
965, 977, 989, 1001, 1013, 1025, 1037, 1049
1061, 1073, 1085, 1097, 1109, 1121, 1133, 1145
1157, 1169, 1181, 1193, 1205, 1217, 1229, 1241
1253, 1265, 1277, 1289, 1301, 1313, 1325, 1337
1349, 1361, 1373, 1385, 1397, 1409, 1421, 1433
1445, 1457, 1469, 1481, 1493, 1505, 1517, 1529
1541, 1553, 1565, 1577, 1589, 1601, 1613, 1625
1637, 1649, 1661, 1673, 1685, 1697, 1709, 1721
1733, 1745, 1757, 1769, 1781, 1793, 1805, 1817
1829, 1841, 1853, 1865, 1877, 1889, 1901, 1913
1925, 1937, 1949, 1961, 1973, 1985
*BEAM SECTION, SECTION=RECTANGULAR, ELSET=voxel_strut5, MATERIAL=ultem_2200_polyetherimide_E
 .072, .072
 -0.500000, 1.000000, -0.500000
*ELSET, ELSET=voxel_strut6
6, 18, 30, 42, 54, 66, 78, 90
102, 114, 126, 138, 150, 162, 174, 186
198, 210, 222, 234, 246, 258, 270, 282
294, 306, 318, 330, 342, 354, 366, 378
390, 402, 414, 426, 438, 450, 462, 474
486, 498, 510, 522, 534, 546, 558, 570
582, 594, 606, 618, 630, 642, 654, 666
678, 690, 702, 714, 726, 738, 750, 762
774, 786, 798, 810, 822, 834, 846, 858
870, 882, 894, 906, 918, 930, 942, 954
966, 978, 990, 1002, 1014, 1026, 1038, 1050
1062, 1074, 1086, 1098, 1110, 1122, 1134, 1146
1158, 1170, 1182, 1194, 1206, 1218, 1230, 1242
1254, 1266, 1278, 1290, 1302, 1314, 1326, 1338
1350, 1362, 1374, 1386, 1398, 1410, 1422, 1434
1446, 1458, 1470, 1482, 1494, 1506, 1518, 1530
1542, 1554, 1566, 1578, 1590, 1602, 1614, 1626
1638, 1650, 1662, 1674, 1686, 1698, 1710, 1722
1734, 1746, 1758, 1770, 1782, 1794, 1806, 1818
1830, 1842, 1854, 1866, 1878, 1890, 1902, 1914
1926, 1938, 1950, 1962, 1974, 1986
*BEAM SECTION, SECTION=RECTANGULAR, ELSET=voxel_strut6, MATERIAL=ultem_2200_polyetherimide_E
 .072, .072
 1.000000, -0.500000, -0.500000
*ELSET, ELSET=voxel_strut7
7, 19, 31, 43, 55, 67, 79, 91
103, 115, 127, 139, 151, 163, 175, 187
199, 211, 223, 235, 247, 259, 271, 283
295, 307, 319, 331, 343, 355, 367, 379
391, 403, 415, 427, 439, 451, 463, 475
487, 499, 511, 523, 535, 547, 559, 571
583, 595, 607, 619, 631, 643, 655, 667
679, 691, 703, 715, 727, 739, 751, 763
775, 787, 799, 811, 823, 835, 847, 859
871, 883, 895, 907, 919, 931, 943, 955
967, 979, 991, 1003, 1015, 1027, 1039, 1051
1063, 1075, 1087, 1099, 1111, 1123, 1135, 1147
1159, 1171, 1183, 1195, 1207, 1219, 1231, 1243
1255, 1267, 1279, 1291, 1303, 1315, 1327, 1339
1351, 1363, 1375, 1387, 1399, 1411, 1423, 1435
1447, 1459, 1471, 1483, 1495, 1507, 1519, 1531
1543, 1555, 1567, 1579, 1591, 1603, 1615, 1627
1639, 1651, 1663, 1675, 1687, 1699, 1711, 1723
1735, 1747, 1759, 1771, 1783, 1795, 1807, 1819
1831, 1843, 1855, 1867, 1879, 1891, 1903, 1915
1927, 1939, 1951, 1963, 1975, 1987
*BEAM SECTION, SECTION=RECTANGULAR, ELSET=voxel_strut7, MATERIAL=ultem_2200_polyetherimide_E
 .072, .072
 0.500000, 1.000000, -0.500000
*ELSET, ELSET=voxel_strut8
8, 20, 32, 44, 56, 68, 80, 92
104, 116, 128, 140, 152, 164, 176, 188
200, 212, 224, 236, 248, 260, 272, 284
296, 308, 320, 332, 344, 356, 368, 380
392, 404, 416, 428, 440, 452, 464, 476
488, 500, 512, 524, 536, 548, 560, 572
584, 596, 608, 620, 632, 644, 656, 668
680, 692, 704, 716, 728, 740, 752, 764
776, 788, 800, 812, 824, 836, 848, 860
872, 884, 896, 908, 920, 932, 944, 956
968, 980, 992, 1004, 1016, 1028, 1040, 1052
1064, 1076, 1088, 1100, 1112, 1124, 1136, 1148
1160, 1172, 1184, 1196, 1208, 1220, 1232, 1244
1256, 1268, 1280, 1292, 1304, 1316, 1328, 1340
1352, 1364, 1376, 1388, 1400, 1412, 1424, 1436
1448, 1460, 1472, 1484, 1496, 1508, 1520, 1532
1544, 1556, 1568, 1580, 1592, 1604, 1616, 1628
1640, 1652, 1664, 1676, 1688, 1700, 1712, 1724
1736, 1748, 1760, 1772, 1784, 1796, 1808, 1820
1832, 1844, 1856, 1868, 1880, 1892, 1904, 1916
1928, 1940, 1952, 1964, 1976, 1988
*BEAM SECTION, SECTION=RECTANGULAR, ELSET=voxel_strut8, MATERIAL=ultem_2200_polyetherimide_E
 .072, .072
 1.000000, 0.500000, -0.500000
*ELSET, ELSET=voxel_strut9
9, 21, 33, 45, 57, 69, 81, 93
105, 117, 129, 141, 153, 165, 177, 189
201, 213, 225, 237, 249, 261, 273, 285
297, 309, 321, 333, 345, 357, 369, 381
393, 405, 417, 429, 441, 453, 465, 477
489, 501, 513, 525, 537, 549, 561, 573
585, 597, 609, 621, 633, 645, 657, 669
681, 693, 705, 717, 729, 741, 753, 765
777, 789, 801, 813, 825, 837, 849, 861
873, 885, 897, 909, 921, 933, 945, 957
969, 981, 993, 1005, 1017, 1029, 1041, 1053
1065, 1077, 1089, 1101, 1113, 1125, 1137, 1149
1161, 1173, 1185, 1197, 1209, 1221, 1233, 1245
1257, 1269, 1281, 1293, 1305, 1317, 1329, 1341
1353, 1365, 1377, 1389, 1401, 1413, 1425, 1437
1449, 1461, 1473, 1485, 1497, 1509, 1521, 1533
1545, 1557, 1569, 1581, 1593, 1605, 1617, 1629
1641, 1653, 1665, 1677, 1689, 1701, 1713, 1725
1737, 1749, 1761, 1773, 1785, 1797, 1809, 1821
1833, 1845, 1857, 1869, 1881, 1893, 1905, 1917
1929, 1941, 1953, 1965, 1977, 1989
*BEAM SECTION, SECTION=RECTANGULAR, ELSET=voxel_strut9, MATERIAL=ultem_2200_polyetherimide_E
 .072, .072
 0.500000, 1.000000, -0.500000
*ELSET, ELSET=voxel_strut10
10, 22, 34, 46, 58, 70, 82, 94
106, 118, 130, 142, 154, 166, 178, 190
202, 214, 226, 238, 250, 262, 274, 286
298, 310, 322, 334, 346, 358, 370, 382
394, 406, 418, 430, 442, 454, 466, 478
490, 502, 514, 526, 538, 550, 562, 574
586, 598, 610, 622, 634, 646, 658, 670
682, 694, 706, 718, 730, 742, 754, 766
778, 790, 802, 814, 826, 838, 850, 862
874, 886, 898, 910, 922, 934, 946, 958
970, 982, 994, 1006, 1018, 1030, 1042, 1054
1066, 1078, 1090, 1102, 1114, 1126, 1138, 1150
1162, 1174, 1186, 1198, 1210, 1222, 1234, 1246
1258, 1270, 1282, 1294, 1306, 1318, 1330, 1342
1354, 1366, 1378, 1390, 1402, 1414, 1426, 1438
1450, 1462, 1474, 1486, 1498, 1510, 1522, 1534
1546, 1558, 1570, 1582, 1594, 1606, 1618, 1630
1642, 1654, 1666, 1678, 1690, 1702, 1714, 1726
1738, 1750, 1762, 1774, 1786, 1798, 1810, 1822
1834, 1846, 1858, 1870, 1882, 1894, 1906, 1918
1930, 1942, 1954, 1966, 1978, 1990
*BEAM SECTION, SECTION=RECTANGULAR, ELSET=voxel_strut10, MATERIAL=ultem_2200_polyetherimide_E
 .072, .072
 1.000000, 0.500000, -0.500000
*ELSET, ELSET=voxel_strut11
11, 23, 35, 47, 59, 71, 83, 95
107, 119, 131, 143, 155, 167, 179, 191
203, 215, 227, 239, 251, 263, 275, 287
299, 311, 323, 335, 347, 359, 371, 383
395, 407, 419, 431, 443, 455, 467, 479
491, 503, 515, 527, 539, 551, 563, 575
587, 599, 611, 623, 635, 647, 659, 671
683, 695, 707, 719, 731, 743, 755, 767
779, 791, 803, 815, 827, 839, 851, 863
875, 887, 899, 911, 923, 935, 947, 959
971, 983, 995, 1007, 1019, 1031, 1043, 1055
1067, 1079, 1091, 1103, 1115, 1127, 1139, 1151
1163, 1175, 1187, 1199, 1211, 1223, 1235, 1247
1259, 1271, 1283, 1295, 1307, 1319, 1331, 1343
1355, 1367, 1379, 1391, 1403, 1415, 1427, 1439
1451, 1463, 1475, 1487, 1499, 1511, 1523, 1535
1547, 1559, 1571, 1583, 1595, 1607, 1619, 1631
1643, 1655, 1667, 1679, 1691, 1703, 1715, 1727
1739, 1751, 1763, 1775, 1787, 1799, 1811, 1823
1835, 1847, 1859, 1871, 1883, 1895, 1907, 1919
1931, 1943, 1955, 1967, 1979, 1991
*BEAM SECTION, SECTION=RECTANGULAR, ELSET=voxel_strut11, MATERIAL=ultem_2200_polyetherimide_E
 .072, .072
 -0.500000, 1.000000, -0.500000
*ELSET, ELSET=voxel_strut12
12, 24, 36, 48, 60, 72, 84, 96
108, 120, 132, 144, 156, 168, 180, 192
204, 216, 228, 240, 252, 264, 276, 288
300, 312, 324, 336, 348, 360, 372, 384
396, 408, 420, 432, 444, 456, 468, 480
492, 504, 516, 528, 540, 552, 564, 576
588, 600, 612, 624, 636, 648, 660, 672
684, 696, 708, 720, 732, 744, 756, 768
780, 792, 804, 816, 828, 840, 852, 864
876, 888, 900, 912, 924, 936, 948, 960
972, 984, 996, 1008, 1020, 1032, 1044, 1056
1068, 1080, 1092, 1104, 1116, 1128, 1140, 1152
1164, 1176, 1188, 1200, 1212, 1224, 1236, 1248
1260, 1272, 1284, 1296, 1308, 1320, 1332, 1344
1356, 1368, 1380, 1392, 1404, 1416, 1428, 1440
1452, 1464, 1476, 1488, 1500, 1512, 1524, 1536
1548, 1560, 1572, 1584, 1596, 1608, 1620, 1632
1644, 1656, 1668, 1680, 1692, 1704, 1716, 1728
1740, 1752, 1764, 1776, 1788, 1800, 1812, 1824
1836, 1848, 1860, 1872, 1884, 1896, 1908, 1920
1932, 1944, 1956, 1968, 1980, 1992
*BEAM SECTION, SECTION=RECTANGULAR, ELSET=voxel_strut12, MATERIAL=ultem_2200_polyetherimide_E
 .072, .072
 1.000000, -0.500000, -0.500000
*MATERIAL, NAME=ultem_2200_polyetherimide_E
*ELASTIC
986000., 0.38
*DENSITY
 .0001329
**End of ultem_2200_polyetherimide_E material definitions
*MATERIAL, NAME=Aluminum_E
*ELASTIC
10.e6, 0.3
*DENSITY
 .000253
**End of Aluminum_E material definitions
*NSET, NSET=baseNodes
6, 12, 51, 56, 89, 94, 127, 132
165, 170, 203, 208, 241, 246, 279, 284
317, 322, 355, 360
*BOUNDARY
baseNodes,1,6,0.
*NSET, NSET=movedNodes
457, 462, 496, 500, 534, 538, 572, 576
610, 614, 648, 652, 686, 690, 722, 726
758, 762, 794, 798
*STEP
*FREQUENCY
12
*END STEP
*STEP,INC=40000,NLGEOM
*STATIC
.1,1.,.001
*BOUNDARY
movedNodes,2,2,0.8
*END STEP
