*HEADING
kagome fracture specimen
*NODE, NSET=lattice_nodes
1, 60.000000, 79.674337, 0.000000
2, 60.500000, 80.540363, 0.000000
3, 61.000000, 79.674337, 0.000000
4, 59.500000, 78.808312, 0.000000
5, 59.000000, 79.674337, 0.000000
6, 60.000000, 76.210236, 0.000000
7, 60.500000, 77.076261, 0.000000
8, 61.000000, 76.210236, 0.000000
9, 59.500000, 75.344210, 0.000000
10, 59.000000, 76.210236, 0.000000
11, 61.000000, 77.942286, 0.000000
12, 61.500000, 78.808312, 0.000000
13, 62.000000, 77.942286, 0.000000
14, 60.000000, 77.942286, 0.000000
15, 62.000000, 79.674337, 0.000000
16, 62.500000, 80.540363, 0.000000
17, 63.000000, 79.674337, 0.000000
18, 60.000000, 72.746134, 0.000000
19, 60.500000, 73.612159, 0.000000
20, 61.000000, 72.746134, 0.000000
** ... 757 like lines cut
*ELEMENT, TYPE=B31, ELSET=BEAM
1, 1, 2
2, 2, 3
3, 3, 1
4, 1, 4
5, 4, 5
6, 5, 1
7, 6, 7
8, 7, 8
9, 8, 6
10, 6, 9
11, 9, 10
12, 10, 6
13, 11, 12
14, 12, 13
15, 13, 11
16, 11, 7
17, 7, 14
18, 14, 11
19, 15, 16
20, 16, 17
** ... 1432 like lines cut
*ELSET, ELSET=voxel_strut1
1, 7, 13, 19, 25, 31, 37, 43
49, 55, 61, 67, 73, 79, 85, 91
97, 103, 109, 115, 121, 127, 133, 139
145, 151, 157, 163, 169, 175, 181, 187
193, 199, 205, 211, 217, 223, 229, 235
241, 247, 253, 259, 265, 271, 277, 283
289, 295, 301, 307, 313, 319, 325, 331
337, 343, 349, 355, 361, 367, 373, 379
385, 391, 397, 403, 409, 415, 421, 427
433, 439, 445, 451, 457, 463, 469, 475
481, 487, 493, 499, 505, 511, 517, 523
529, 535, 541, 547, 553, 559, 565, 571
577, 583, 589, 595, 601, 607, 613, 619
625, 631, 637, 643, 649, 655, 661, 667
673, 679, 685, 691, 697, 703, 709, 715
721, 727, 733, 739, 745, 751, 757, 763
769, 775, 781, 787, 793, 799, 805, 811
817, 823, 829, 835, 841, 847, 853, 859
865, 871, 877, 883, 889, 895, 901, 907
913, 919, 925, 931, 937, 943, 949, 955
** ... 11 like lines cut
*BEAM SECTION, SECTION=RECTANGULAR, ELSET=voxel_strut1, MATERIAL=ultem_2200_polyetherimide_E
 .072, .072
 -0.500000, -0.500000, 1.000000
*ELSET, ELSET=voxel_strut2
2, 4, 5, 8, 10, 11, 14, 16
17, 20, 22, 23, 26, 28, 29, 32
34, 35, 38, 40, 41, 44, 46, 47
50, 52, 53, 56, 58, 59, 62, 64
65, 68, 70, 71, 74, 76, 77, 80
82, 83, 86, 88, 89, 92, 94, 95
98, 100, 101, 104, 106, 107, 110, 112
113, 116, 118, 119, 122, 124, 125, 128
130, 131, 134, 136, 137, 140, 142, 143
146, 148, 149, 152, 154, 155, 158, 160
161, 164, 166, 167, 170, 172, 173, 176
178, 179, 182, 184, 185, 188, 190, 191
194, 196, 197, 200, 202, 203, 206, 208
209, 212, 214, 215, 218, 220, 221, 224
226, 227, 230, 232, 233, 236, 238, 239
242, 244, 245, 248, 250, 251, 254, 256
257, 260, 262, 263, 266, 268, 269, 272
274, 275, 278, 280, 281, 284, 286, 287
290, 292, 293, 296, 298, 299, 302, 304
305, 308, 310, 311, 314, 316, 317, 320
** ... 71 like lines cut
*BEAM SECTION, SECTION=RECTANGULAR, ELSET=voxel_strut2, MATERIAL=ultem_2200_polyetherimide_E
 .072, .072
 0.500000, -0.500000, 1.000000
*ELSET, ELSET=voxel_strut3
3, 6, 9, 12, 15, 18, 21, 24
27, 30, 33, 36, 39, 42, 45, 48
51, 54, 57, 60, 63, 66, 69, 72
75, 78, 81, 84, 87, 90, 93, 96
99, 102, 105, 108, 111, 114, 117, 120
123, 126, 129, 132, 135, 138, 141, 144
147, 150, 153, 156, 159, 162, 165, 168
171, 174, 177, 180, 183, 186, 189, 192
195, 198, 201, 204, 207, 210, 213, 216
219, 222, 225, 228, 231, 234, 237, 240
243, 246, 249, 252, 255, 258, 261, 264
267, 270, 273, 276, 279, 282, 285, 288
291, 294, 297, 300, 303, 306, 309, 312
315, 318, 321, 324, 327, 330, 333, 336
339, 342, 345, 348, 351, 354, 357, 360
363, 366, 369, 372, 375, 378, 381, 384
387, 390, 393, 396, 399, 402, 405, 408
411, 414, 417, 420, 423, 426, 429, 432
435, 438, 441, 444, 447, 450, 453, 456
459, 462, 465, 468, 471, 474, 477, 480
** ... 41 like lines cut
*BEAM SECTION, SECTION=RECTANGULAR, ELSET=voxel_strut3, MATERIAL=ultem_2200_polyetherimide_E
 .072, .072
 -0.500000, -0.500000, 1.000000
*ELSET, ELSET=voxel_strut4

*BEAM SECTION, SECTION=RECTANGULAR, ELSET=voxel_strut4, MATERIAL=ultem_2200_polyetherimide_E
 .072, .072
 0.500000, -0.500000, 1.000000
*ELSET, ELSET=voxel_strut5

*BEAM SECTION, SECTION=RECTANGULAR, ELSET=voxel_strut5, MATERIAL=ultem_2200_polyetherimide_E
 .072, .072
 -0.500000, 1.000000, -0.500000
*ELSET, ELSET=voxel_strut6

*BEAM SECTION, SECTION=RECTANGULAR, ELSET=voxel_strut6, MATERIAL=ultem_2200_polyetherimide_E
 .072, .072
 1.000000, -0.500000, -0.500000
*MATERIAL, NAME=ultem_2200_polyetherimide_E
*ELASTIC
986000., 0.38
*DENSITY
 .0001329
**End of ultem_2200_polyetherimide_E material definitions
*MATERIAL, NAME=Aluminum_E
*ELASTIC
10.e6, 0.3
*DENSITY
 .000253
**End of Aluminum_E material definitions
*NSET, NSET=baseNodes
404, 471, 529, 581, 627, 667, 701, 729
751, 767, 777
*BOUNDARY
baseNodes,1,1,0.
baseNodes,3,3,0.
404,1,6,0.
*NSET, NSET=movedNodes
2, 16, 34, 58, 88, 124, 167, 216
271, 332, 399
*STEP
*FREQUENCY
12
*END STEP
*STEP,INC=40000,NLGEOM
*STATIC
.1,1.,.0001
*BOUNDARY
movedNodes,2,2,0.8
**CLOAD
**movedNodes,2,100.
*END STEP
