*MATERIAL, NAME=STEEL
*ELASTIC
 30.E6,.3
