*MATERIAL, NAME=STEEL
*ELASTIC
 3.E6,.3
 *DENSITY
 .0005
