*HEADING
Robot walking model
*NODE, NSET=lattice_nodes
1, 1.500000, 0.000000, 0.000000
2, 1.125000, 0.000000, -0.375000
3, 0.750000, 0.000000, -0.750000
4, 0.375000, 0.000000, -1.125000
5, 0.000000, 0.000000, -1.500000
6, -0.375000, 0.000000, -1.125000
7, -0.750000, 0.000000, -0.750000
8, -1.125000, 0.000000, -0.375000
9, -1.500000, 0.000000, 0.000000
10, -1.125000, 0.000000, 0.375000
11, -0.750000, 0.000000, 0.750000
12, -0.375000, 0.000000, 1.125000
13, 0.000000, 0.000000, 1.500000
14, 0.375000, 0.000000, 1.125000
15, 0.750000, 0.000000, 0.750000
16, 1.125000, 0.000000, 0.375000
17, 1.125000, 0.375000, 0.000000
18, 0.750000, 0.750000, 0.000000
19, 0.375000, 1.125000, 0.000000
20, 0.000000, 1.500000, 0.000000
** ... 640 like lines cut
*NSET, NSET=FEET_NODES
366, 407, 75, 448, 117, 489, 159, 33

*ELEMENT, TYPE=B31, ELSET=BEAM
1, 1, 2, 43
2, 2, 3, 43
3, 3, 4, 43
4, 4, 5, 43
5, 5, 6, 43
6, 6, 7, 43
7, 7, 8, 43
8, 8, 9, 43
9, 9, 10, 43
10, 10, 11, 43
11, 11, 12, 43
12, 12, 13, 43
13, 13, 14, 43
14, 14, 15, 43
15, 15, 16, 43
16, 16, 1, 43
17, 1, 17, 43
18, 17, 18, 43
19, 18, 19, 43
20, 19, 20, 43
** ... 748 like lines cut
*ELSET, ELSET=voxel_strut1
1, 2, 3, 4, 49, 50, 51, 52
97, 98, 99, 100, 145, 146, 147, 148
193, 194, 195, 196, 241, 242, 243, 244
289, 290, 291, 292, 337, 338, 339, 340
385, 386, 387, 388, 433, 434, 435, 436
481, 482, 483, 484, 529, 530, 531, 532
577, 578, 579, 580, 625, 626, 627, 628
673, 674, 675, 676, 721, 722, 723, 724
*BEAM SECTION, SECTION=RECTANGULAR, ELSET=voxel_strut1, MATERIAL=ultem_2200_polyetherimide_E
 .072, .072
 -0.500000, -0.500000, 1.000000
*ELSET, ELSET=voxel_strut2
5, 6, 7, 8, 53, 54, 55, 56
101, 102, 103, 104, 149, 150, 151, 152
197, 198, 199, 200, 245, 246, 247, 248
293, 294, 295, 296, 341, 342, 343, 344
389, 390, 391, 392, 437, 438, 439, 440
485, 486, 487, 488, 533, 534, 535, 536
581, 582, 583, 584, 629, 630, 631, 632
677, 678, 679, 680, 725, 726, 727, 728
*BEAM SECTION, SECTION=RECTANGULAR, ELSET=voxel_strut2, MATERIAL=ultem_2200_polyetherimide_E
 .072, .072
 0.500000, -0.500000, 1.000000
*ELSET, ELSET=voxel_strut3
9, 10, 11, 12, 57, 58, 59, 60
105, 106, 107, 108, 153, 154, 155, 156
201, 202, 203, 204, 249, 250, 251, 252
297, 298, 299, 300, 345, 346, 347, 348
393, 394, 395, 396, 441, 442, 443, 444
489, 490, 491, 492, 537, 538, 539, 540
585, 586, 587, 588, 633, 634, 635, 636
681, 682, 683, 684, 729, 730, 731, 732
*BEAM SECTION, SECTION=RECTANGULAR, ELSET=voxel_strut3, MATERIAL=ultem_2200_polyetherimide_E
 .072, .072
 -0.500000, -0.500000, 1.000000
*ELSET, ELSET=voxel_strut4
13, 14, 15, 16, 61, 62, 63, 64
109, 110, 111, 112, 157, 158, 159, 160
205, 206, 207, 208, 253, 254, 255, 256
301, 302, 303, 304, 349, 350, 351, 352
397, 398, 399, 400, 445, 446, 447, 448
493, 494, 495, 496, 541, 542, 543, 544
589, 590, 591, 592, 637, 638, 639, 640
685, 686, 687, 688, 733, 734, 735, 736
*BEAM SECTION, SECTION=RECTANGULAR, ELSET=voxel_strut4, MATERIAL=ultem_2200_polyetherimide_E
 .072, .072
 0.500000, -0.500000, 1.000000
*ELSET, ELSET=voxel_strut5
17, 18, 19, 20, 65, 66, 67, 68
113, 114, 115, 116, 161, 162, 163, 164
209, 210, 211, 212, 257, 258, 259, 260
305, 306, 307, 308, 353, 354, 355, 356
401, 402, 403, 404, 449, 450, 451, 452
497, 498, 499, 500, 545, 546, 547, 548
593, 594, 595, 596, 641, 642, 643, 644
689, 690, 691, 692, 737, 738, 739, 740
*BEAM SECTION, SECTION=RECTANGULAR, ELSET=voxel_strut5, MATERIAL=ultem_2200_polyetherimide_E
 .072, .072
 -0.500000, 1.000000, -0.500000
*ELSET, ELSET=voxel_strut6
21, 22, 23, 24, 69, 70, 71, 72
117, 118, 119, 120, 165, 166, 167, 168
213, 214, 215, 216, 261, 262, 263, 264
309, 310, 311, 312, 357, 358, 359, 360
405, 406, 407, 408, 453, 454, 455, 456
501, 502, 503, 504, 549, 550, 551, 552
597, 598, 599, 600, 645, 646, 647, 648
693, 694, 695, 696, 741, 742, 743, 744
*BEAM SECTION, SECTION=RECTANGULAR, ELSET=voxel_strut6, MATERIAL=ultem_2200_polyetherimide_E
 .072, .072
 1.000000, -0.500000, -0.500000
*ELSET, ELSET=voxel_strut7
25, 26, 27, 28, 73, 74, 75, 76
121, 122, 123, 124, 169, 170, 171, 172
217, 218, 219, 220, 265, 266, 267, 268
313, 314, 315, 316, 361, 362, 363, 364
409, 410, 411, 412, 457, 458, 459, 460
505, 506, 507, 508, 553, 554, 555, 556
601, 602, 603, 604, 649, 650, 651, 652
697, 698, 699, 700, 745, 746, 747, 748
*BEAM SECTION, SECTION=RECTANGULAR, ELSET=voxel_strut7, MATERIAL=ultem_2200_polyetherimide_E
 .072, .072
 0.500000, 1.000000, -0.500000
*ELSET, ELSET=voxel_strut8
29, 30, 31, 32, 77, 78, 79, 80
125, 126, 127, 128, 173, 174, 175, 176
221, 222, 223, 224, 269, 270, 271, 272
317, 318, 319, 320, 365, 366, 367, 368
413, 414, 415, 416, 461, 462, 463, 464
509, 510, 511, 512, 557, 558, 559, 560
605, 606, 607, 608, 653, 654, 655, 656
701, 702, 703, 704, 749, 750, 751, 752
*BEAM SECTION, SECTION=RECTANGULAR, ELSET=voxel_strut8, MATERIAL=ultem_2200_polyetherimide_E
 .072, .072
 1.000000, 0.500000, -0.500000
*ELSET, ELSET=voxel_strut9
33, 34, 35, 36, 81, 82, 83, 84
129, 130, 131, 132, 177, 178, 179, 180
225, 226, 227, 228, 273, 274, 275, 276
321, 322, 323, 324, 369, 370, 371, 372
417, 418, 419, 420, 465, 466, 467, 468
513, 514, 515, 516, 561, 562, 563, 564
609, 610, 611, 612, 657, 658, 659, 660
705, 706, 707, 708, 753, 754, 755, 756
*BEAM SECTION, SECTION=RECTANGULAR, ELSET=voxel_strut9, MATERIAL=ultem_2200_polyetherimide_E
 .072, .072
 0.500000, 1.000000, -0.500000
*ELSET, ELSET=voxel_strut10
37, 38, 39, 40, 85, 86, 87, 88
133, 134, 135, 136, 181, 182, 183, 184
229, 230, 231, 232, 277, 278, 279, 280
325, 326, 327, 328, 373, 374, 375, 376
421, 422, 423, 424, 469, 470, 471, 472
517, 518, 519, 520, 565, 566, 567, 568
613, 614, 615, 616, 661, 662, 663, 664
709, 710, 711, 712, 757, 758, 759, 760
*BEAM SECTION, SECTION=RECTANGULAR, ELSET=voxel_strut10, MATERIAL=ultem_2200_polyetherimide_E
 .072, .072
 1.000000, 0.500000, -0.500000
*ELSET, ELSET=voxel_strut11
41, 42, 43, 44, 89, 90, 91, 92
137, 138, 139, 140, 185, 186, 187, 188
233, 234, 235, 236, 281, 282, 283, 284
329, 330, 331, 332, 377, 378, 379, 380
425, 426, 427, 428, 473, 474, 475, 476
521, 522, 523, 524, 569, 570, 571, 572
617, 618, 619, 620, 665, 666, 667, 668
713, 714, 715, 716, 761, 762, 763, 764
*BEAM SECTION, SECTION=RECTANGULAR, ELSET=voxel_strut11, MATERIAL=ultem_2200_polyetherimide_E
 .072, .072
 -0.500000, 1.000000, -0.500000
*ELSET, ELSET=voxel_strut12
45, 46, 47, 48, 93, 94, 95, 96
141, 142, 143, 144, 189, 190, 191, 192
237, 238, 239, 240, 285, 286, 287, 288
333, 334, 335, 336, 381, 382, 383, 384
429, 430, 431, 432, 477, 478, 479, 480
525, 526, 527, 528, 573, 574, 575, 576
621, 622, 623, 624, 669, 670, 671, 672
717, 718, 719, 720, 765, 766, 767, 768
*BEAM SECTION, SECTION=RECTANGULAR, ELSET=voxel_strut12, MATERIAL=ultem_2200_polyetherimide_E
 .072, .072
 1.000000, -0.500000, -0.500000
*NODE, NSET=surface_feet_nodes
661, 3.000000, -1.700000, 0.000000
662, 3.000000, -1.700000, -0.066667
663, 2.933333, -1.700000, -0.066667
664, 2.933333, -1.700000, 0.000000
665, 2.933333, -1.700000, 0.066667
666, 3.000000, -1.700000, 0.066667
667, 3.000000, -1.560000, -0.200000
668, 2.800000, -1.560000, -0.200000
669, 2.800000, -1.560000, 0.000000
670, 2.800000, -1.560000, 0.200000
671, 3.000000, -1.560000, 0.200000
672, 3.066667, -1.700000, -0.066667
673, 3.066667, -1.700000, 0.000000
674, 3.066667, -1.700000, 0.066667
675, 3.200000, -1.560000, -0.200000
676, 3.200000, -1.560000, 0.000000
677, 3.200000, -1.560000, 0.200000
*ELEMENT, TYPE=S4R, ELSET=SHELLS
769, 661, 664, 663, 662
770, 661, 666, 665, 664
771, 662, 663, 668, 667
772, 664, 669, 668, 663
773, 665, 670, 669, 664
774, 671, 670, 665, 666
775, 661, 662, 672, 673
776, 666, 661, 673, 674
777, 662, 667, 675, 672
778, 673, 672, 675, 676
779, 674, 673, 676, 677
780, 671, 666, 674, 677
*ELEMENT, TYPE=B31, ELSET=BEAM_feet_connectors
781, 366, 661
782, 366, 662
783, 366, 663
784, 366, 664
785, 366, 665
786, 366, 666
787, 366, 667
788, 366, 668
789, 366, 669
790, 366, 670
791, 366, 671
792, 366, 672
793, 366, 673
794, 366, 674
795, 366, 675
796, 366, 676
797, 366, 677
*NODE, NSET=surface_feet_nodes
678, 3.000000, -1.700000, 3.000000
679, 3.000000, -1.700000, 2.933333
680, 2.933333, -1.700000, 2.933333
681, 2.933333, -1.700000, 3.000000
682, 2.933333, -1.700000, 3.066667
683, 3.000000, -1.700000, 3.066667
684, 3.000000, -1.560000, 2.800000
685, 2.800000, -1.560000, 2.800000
686, 2.800000, -1.560000, 3.000000
687, 2.800000, -1.560000, 3.200000
688, 3.000000, -1.560000, 3.200000
689, 3.066667, -1.700000, 2.933333
690, 3.066667, -1.700000, 3.000000
691, 3.066667, -1.700000, 3.066667
692, 3.200000, -1.560000, 2.800000
693, 3.200000, -1.560000, 3.000000
694, 3.200000, -1.560000, 3.200000
*ELEMENT, TYPE=S4R, ELSET=SHELLS
798, 678, 681, 680, 679
799, 678, 683, 682, 681
800, 679, 680, 685, 684
801, 681, 686, 685, 680
802, 682, 687, 686, 681
803, 688, 687, 682, 683
804, 678, 679, 689, 690
805, 683, 678, 690, 691
806, 679, 684, 692, 689
807, 690, 689, 692, 693
808, 691, 690, 693, 694
809, 688, 683, 691, 694
*ELEMENT, TYPE=B31, ELSET=BEAM_feet_connectors
810, 407, 678
811, 407, 679
812, 407, 680
813, 407, 681
814, 407, 682
815, 407, 683
816, 407, 684
817, 407, 685
818, 407, 686
819, 407, 687
820, 407, 688
821, 407, 689
822, 407, 690
823, 407, 691
824, 407, 692
825, 407, 693
826, 407, 694
*NODE, NSET=surface_feet_nodes
695, 0.000000, -1.700000, 3.000000
696, 0.000000, -1.700000, 2.933333
697, -0.066667, -1.700000, 2.933333
698, -0.066667, -1.700000, 3.000000
699, -0.066667, -1.700000, 3.066667
700, 0.000000, -1.700000, 3.066667
701, 0.000000, -1.560000, 2.800000
702, -0.200000, -1.560000, 2.800000
703, -0.200000, -1.560000, 3.000000
704, -0.200000, -1.560000, 3.200000
705, 0.000000, -1.560000, 3.200000
706, 0.066667, -1.700000, 2.933333
707, 0.066667, -1.700000, 3.000000
708, 0.066667, -1.700000, 3.066667
709, 0.200000, -1.560000, 2.800000
710, 0.200000, -1.560000, 3.000000
711, 0.200000, -1.560000, 3.200000
*ELEMENT, TYPE=S4R, ELSET=SHELLS
827, 695, 698, 697, 696
828, 695, 700, 699, 698
829, 696, 697, 702, 701
830, 698, 703, 702, 697
831, 699, 704, 703, 698
832, 705, 704, 699, 700
833, 695, 696, 706, 707
834, 700, 695, 707, 708
835, 696, 701, 709, 706
836, 707, 706, 709, 710
837, 708, 707, 710, 711
838, 705, 700, 708, 711
*ELEMENT, TYPE=B31, ELSET=BEAM_feet_connectors
839, 75, 695
840, 75, 696
841, 75, 697
842, 75, 698
843, 75, 699
844, 75, 700
845, 75, 701
846, 75, 702
847, 75, 703
848, 75, 704
849, 75, 705
850, 75, 706
851, 75, 707
852, 75, 708
853, 75, 709
854, 75, 710
855, 75, 711
*NODE, NSET=surface_feet_nodes
712, 3.000000, -1.700000, 6.000000
713, 3.000000, -1.700000, 5.933333
714, 2.933333, -1.700000, 5.933333
715, 2.933333, -1.700000, 6.000000
716, 2.933333, -1.700000, 6.066667
717, 3.000000, -1.700000, 6.066667
718, 3.000000, -1.560000, 5.800000
719, 2.800000, -1.560000, 5.800000
720, 2.800000, -1.560000, 6.000000
721, 2.800000, -1.560000, 6.200000
722, 3.000000, -1.560000, 6.200000
723, 3.066667, -1.700000, 5.933333
724, 3.066667, -1.700000, 6.000000
725, 3.066667, -1.700000, 6.066667
726, 3.200000, -1.560000, 5.800000
727, 3.200000, -1.560000, 6.000000
728, 3.200000, -1.560000, 6.200000
*ELEMENT, TYPE=S4R, ELSET=SHELLS
856, 712, 715, 714, 713
857, 712, 717, 716, 715
858, 713, 714, 719, 718
859, 715, 720, 719, 714
860, 716, 721, 720, 715
861, 722, 721, 716, 717
862, 712, 713, 723, 724
863, 717, 712, 724, 725
864, 713, 718, 726, 723
865, 724, 723, 726, 727
866, 725, 724, 727, 728
867, 722, 717, 725, 728
*ELEMENT, TYPE=B31, ELSET=BEAM_feet_connectors
868, 448, 712
869, 448, 713
870, 448, 714
871, 448, 715
872, 448, 716
873, 448, 717
874, 448, 718
875, 448, 719
876, 448, 720
877, 448, 721
878, 448, 722
879, 448, 723
880, 448, 724
881, 448, 725
882, 448, 726
883, 448, 727
884, 448, 728
*NODE, NSET=surface_feet_nodes
729, 0.000000, -1.700000, 6.000000
730, 0.000000, -1.700000, 5.933333
731, -0.066667, -1.700000, 5.933333
732, -0.066667, -1.700000, 6.000000
733, -0.066667, -1.700000, 6.066667
734, 0.000000, -1.700000, 6.066667
735, 0.000000, -1.560000, 5.800000
736, -0.200000, -1.560000, 5.800000
737, -0.200000, -1.560000, 6.000000
738, -0.200000, -1.560000, 6.200000
739, 0.000000, -1.560000, 6.200000
740, 0.066667, -1.700000, 5.933333
741, 0.066667, -1.700000, 6.000000
742, 0.066667, -1.700000, 6.066667
743, 0.200000, -1.560000, 5.800000
744, 0.200000, -1.560000, 6.000000
745, 0.200000, -1.560000, 6.200000
*ELEMENT, TYPE=S4R, ELSET=SHELLS
885, 729, 732, 731, 730
886, 729, 734, 733, 732
887, 730, 731, 736, 735
888, 732, 737, 736, 731
889, 733, 738, 737, 732
890, 739, 738, 733, 734
891, 729, 730, 740, 741
892, 734, 729, 741, 742
893, 730, 735, 743, 740
894, 741, 740, 743, 744
895, 742, 741, 744, 745
896, 739, 734, 742, 745
*ELEMENT, TYPE=B31, ELSET=BEAM_feet_connectors
897, 117, 729
898, 117, 730
899, 117, 731
900, 117, 732
901, 117, 733
902, 117, 734
903, 117, 735
904, 117, 736
905, 117, 737
906, 117, 738
907, 117, 739
908, 117, 740
909, 117, 741
910, 117, 742
911, 117, 743
912, 117, 744
913, 117, 745
*NODE, NSET=surface_feet_nodes
746, 3.000000, -1.700000, 9.000000
747, 3.000000, -1.700000, 8.933333
748, 2.933333, -1.700000, 8.933333
749, 2.933333, -1.700000, 9.000000
750, 2.933333, -1.700000, 9.066667
751, 3.000000, -1.700000, 9.066667
752, 3.000000, -1.560000, 8.800000
753, 2.800000, -1.560000, 8.800000
754, 2.800000, -1.560000, 9.000000
755, 2.800000, -1.560000, 9.200000
756, 3.000000, -1.560000, 9.200000
757, 3.066667, -1.700000, 8.933333
758, 3.066667, -1.700000, 9.000000
759, 3.066667, -1.700000, 9.066667
760, 3.200000, -1.560000, 8.800000
761, 3.200000, -1.560000, 9.000000
762, 3.200000, -1.560000, 9.200000
*ELEMENT, TYPE=S4R, ELSET=SHELLS
914, 746, 749, 748, 747
915, 746, 751, 750, 749
916, 747, 748, 753, 752
917, 749, 754, 753, 748
918, 750, 755, 754, 749
919, 756, 755, 750, 751
920, 746, 747, 757, 758
921, 751, 746, 758, 759
922, 747, 752, 760, 757
923, 758, 757, 760, 761
924, 759, 758, 761, 762
925, 756, 751, 759, 762
*ELEMENT, TYPE=B31, ELSET=BEAM_feet_connectors
926, 489, 746
927, 489, 747
928, 489, 748
929, 489, 749
930, 489, 750
931, 489, 751
932, 489, 752
933, 489, 753
934, 489, 754
935, 489, 755
936, 489, 756
937, 489, 757
938, 489, 758
939, 489, 759
940, 489, 760
941, 489, 761
942, 489, 762
*NODE, NSET=surface_feet_nodes
763, 0.000000, -1.700000, 9.000000
764, 0.000000, -1.700000, 8.933333
765, -0.066667, -1.700000, 8.933333
766, -0.066667, -1.700000, 9.000000
767, -0.066667, -1.700000, 9.066667
768, 0.000000, -1.700000, 9.066667
769, 0.000000, -1.560000, 8.800000
770, -0.200000, -1.560000, 8.800000
771, -0.200000, -1.560000, 9.000000
772, -0.200000, -1.560000, 9.200000
773, 0.000000, -1.560000, 9.200000
774, 0.066667, -1.700000, 8.933333
775, 0.066667, -1.700000, 9.000000
776, 0.066667, -1.700000, 9.066667
777, 0.200000, -1.560000, 8.800000
778, 0.200000, -1.560000, 9.000000
779, 0.200000, -1.560000, 9.200000
*ELEMENT, TYPE=S4R, ELSET=SHELLS
943, 763, 766, 765, 764
944, 763, 768, 767, 766
945, 764, 765, 770, 769
946, 766, 771, 770, 765
947, 767, 772, 771, 766
948, 773, 772, 767, 768
949, 763, 764, 774, 775
950, 768, 763, 775, 776
951, 764, 769, 777, 774
952, 775, 774, 777, 778
953, 776, 775, 778, 779
954, 773, 768, 776, 779
*ELEMENT, TYPE=B31, ELSET=BEAM_feet_connectors
955, 159, 763
956, 159, 764
957, 159, 765
958, 159, 766
959, 159, 767
960, 159, 768
961, 159, 769
962, 159, 770
963, 159, 771
964, 159, 772
965, 159, 773
966, 159, 774
967, 159, 775
968, 159, 776
969, 159, 777
970, 159, 778
971, 159, 779
*NODE, NSET=surface_feet_nodes
780, 0.000000, -1.700000, 0.000000
781, 0.000000, -1.700000, -0.066667
782, -0.066667, -1.700000, -0.066667
783, -0.066667, -1.700000, 0.000000
784, -0.066667, -1.700000, 0.066667
785, 0.000000, -1.700000, 0.066667
786, 0.000000, -1.560000, -0.200000
787, -0.200000, -1.560000, -0.200000
788, -0.200000, -1.560000, 0.000000
789, -0.200000, -1.560000, 0.200000
790, 0.000000, -1.560000, 0.200000
791, 0.066667, -1.700000, -0.066667
792, 0.066667, -1.700000, 0.000000
793, 0.066667, -1.700000, 0.066667
794, 0.200000, -1.560000, -0.200000
795, 0.200000, -1.560000, 0.000000
796, 0.200000, -1.560000, 0.200000
*ELEMENT, TYPE=S4R, ELSET=SHELLS
972, 780, 783, 782, 781
973, 780, 785, 784, 783
974, 781, 782, 787, 786
975, 783, 788, 787, 782
976, 784, 789, 788, 783
977, 790, 789, 784, 785
978, 780, 781, 791, 792
979, 785, 780, 792, 793
980, 781, 786, 794, 791
981, 792, 791, 794, 795
982, 793, 792, 795, 796
983, 790, 785, 793, 796
*ELEMENT, TYPE=B31, ELSET=BEAM_feet_connectors
984, 33, 780
985, 33, 781
986, 33, 782
987, 33, 783
988, 33, 784
989, 33, 785
990, 33, 786
991, 33, 787
992, 33, 788
993, 33, 789
994, 33, 790
995, 33, 791
996, 33, 792
997, 33, 793
998, 33, 794
999, 33, 795
1000, 33, 796
*SHELL SECTION, ELSET=SHELLS, MATERIAL=Aluminum_E
 .1
*BEAM SECTION, SECTION=CIRC, ELSET=BEAM_feet_connectors, MATERIAL=Aluminum_E
 .2
*ELSET, ELSET=negZfrictionElems
805, 806, 799, 800, 834, 835, 828, 829
863, 864, 857, 858, 892, 893, 886, 887
921, 922, 915, 916, 950, 951, 944, 945
*ELSET, ELSET=posZfrictionElems
776, 777, 770, 771, 979, 980, 973, 974
*ELEMENT, TYPE=CONN3D2, ELSET=ACTUATOR1
1001, 387, 551
*ELEMENT, TYPE=CONN3D2, ELSET=ACTUATOR2
1002, 55, 223
*CONNECTOR SECTION, ELSET=ACTUATOR1
axial
*CONNECTOR SECTION, ELSET=ACTUATOR2
axial
*ELEMENT, TYPE=SPRINGA, ELSET=SPRINGS
1003, 387, 551
1004, 55, 223
*SPRING,ELSET=SPRINGS

1.E1,
*NODE, NSET=ground_ref
797, 0.000000, -1.710000, 0.000000
*NODE, NSET=RIGID_NODES
798, -10.000000, -1.710000, 10.000000
799, 10.000000, -1.710000, 10.000000
800, 10.000000, -1.710000, -10.000000
801, -10.000000, -1.710000, -10.000000
*ELEMENT, TYPE=MASS, ELSET=REF_MASS
1005, 797
*MASS, ELSET=REF_MASS
1000., 
*ELEMENT, TYPE=R3D4, ELSET=GROUND
1006, 798, 799, 800, 801
*SURFACE,TYPE=ELEMENT, NAME=FEET
SHELLS
*SURFACE,TYPE=ELEMENT, NAME=posZ_FEET
posZfrictionElems
*SURFACE,TYPE=ELEMENT, NAME=negZ_FEET
negZfrictionElems
*SURFACE, TYPE=ELEMENT, NAME=GROUND
GROUND,SPOS
*RIGID BODY, ELSET=GROUND, REFNODE=ground_ref
*SURFACE INTERACTION, NAME=friction_posZ
*FRICTION
 0.00001,
*SURFACE BEHAVIOR,PENALTY
*CONTACT PAIR,INTERACTION=friction_posZ
posZ_FEET,GROUND
**
*SURFACE INTERACTION, NAME=friction_negZ
*FRICTION
 0.75,
*SURFACE BEHAVIOR,PENALTY
*CONTACT PAIR,INTERACTION=friction_negZ
negZ_FEET,GROUND
**
*BOUNDARY
ground_ref,1,6,0.
*AMPLITUDE,TIME=TOTAL TIME,VALUE=RELATIVE,NAME=MIN1
0.,0.,.2, 0.,1.2,1.0,2.2,0.
3.2,1.,4.2,0.,5.2,1.,6.2,1.
*AMPLITUDE,TIME=TOTAL TIME,VALUE=RELATIVE,NAME=MIN24
0.,0.,.1, 0.,1.,1.0,2.,0.
3.,-1.,4.0,0.,5.,1.,6.,0.
7.,-1.,8., 0.,9.,1.0,10.,0.
11.,-1.,12., 0.,13.,1.0,14.,0.
15.,-1.,16., 0.,17.,1.0,18.,0.
19.,-1.,20., 0.,21.,1.0,22.,0.
23.,-1.,24., 0.,25.,1.0,26.,0.
27.,-1.,28., 0.,29.,1.0,30.,0.
31.,-1.,32., 0.,33.,1.0,34.,0.
35.,-1.,36., 0.,37.,1.0,38.,0.
39.,-1.,40., 0.,41.,1.0,42.,0.
43.,-1.,44., 0.,45.,1.0,46.,0.
47.,-1.,48., 0.,49.,1.0,50.,0.
51.,-1.,52., 0.,53.,1.0,54.,0.
55.,-1.,56., 0.,57.,1.0,58.,0.
59.,-1.,60., 0.,61.,1.0,62.,0.
*MATERIAL, NAME=ultem_2200_polyetherimide_E
*ELASTIC
986000., 0.38
*DENSITY
 .0001329
**End of ultem_2200_polyetherimide_E material definitions
*MATERIAL, NAME=Aluminum_E
*ELASTIC
10.e6, 0.3
*DENSITY
 .000253
**End of Aluminum_E material definitions
*STEP,INC=40000,NLGEOM
*DYNAMIC
1.0E-4,60.,1.0E-8,.05
*DLOAD
BEAM,GRAV,99810.,0.,-1.,0.
*CONNECTOR MOTION, AMPLITUDE=MIN24, TYPE=DISPLACEMENT
ACTUATOR1,1,.3
*CONNECTOR MOTION, AMPLITUDE=MIN24, TYPE=DISPLACEMENT
ACTUATOR2,1,.3
*END STEP
