*Heading
Stick model for GTM wing with voxel substructure
*Part, name=GTM
**
*Node
1, 6.280708, 2.652558, 0.596486
2, 6.839188, 2.888423, 0.649526
3, 7.397667, 3.124288, 0.702565
4, 7.956147, 3.360154, 0.755605
5, 8.514627, 3.596019, 0.808644
6, 9.073106, 3.831884, 0.861684
7, 9.631586, 4.067749, 0.914723
8, 10.190066, 4.303614, 0.967763
9, 10.748546, 4.539479, 1.020802
10, 11.307025, 4.775344, 1.073842
11, 11.865505, 5.011209, 1.126881
12, 12.423985, 5.247075, 1.179921
13, 12.982464, 5.482940, 1.232960
14, 13.540944, 5.718805, 1.286000
15, 14.099424, 5.954670, 1.339039
16, 14.657903, 6.190535, 1.392079
17, 15.216383, 6.426400, 1.445118
18, 15.774863, 6.662265, 1.498158
19, 16.333343, 6.898130, 1.551197
20, 16.891822, 7.133995, 1.604237
** ... 81 like lines cut
*ELEMENT, TYPE=B31, ELSET=Beam_1
1, 1, 2
*ELEMENT, TYPE=B31, ELSET=Beam_2
2, 2, 3
*ELEMENT, TYPE=B31, ELSET=Beam_3
3, 3, 4
*ELEMENT, TYPE=B31, ELSET=Beam_4
4, 4, 5
*ELEMENT, TYPE=B31, ELSET=Beam_5
5, 5, 6
*ELEMENT, TYPE=B31, ELSET=Beam_6
6, 6, 7
*ELEMENT, TYPE=B31, ELSET=Beam_7
7, 7, 8
*ELEMENT, TYPE=B31, ELSET=Beam_8
8, 8, 9
*ELEMENT, TYPE=B31, ELSET=Beam_9
9, 9, 10
*ELEMENT, TYPE=B31, ELSET=Beam_10
10, 10, 11
*ELEMENT, TYPE=B31, ELSET=Beam_11
11, 11, 12
*ELEMENT, TYPE=B31, ELSET=Beam_12
12, 12, 13
*ELEMENT, TYPE=B31, ELSET=Beam_13
13, 13, 14
*ELEMENT, TYPE=B31, ELSET=Beam_14
14, 14, 15
*ELEMENT, TYPE=B31, ELSET=Beam_15
15, 15, 16
*ELEMENT, TYPE=B31, ELSET=Beam_16
16, 16, 17
*ELEMENT, TYPE=B31, ELSET=Beam_17
17, 17, 18
*ELEMENT, TYPE=B31, ELSET=Beam_18
18, 18, 19
*ELEMENT, TYPE=B31, ELSET=Beam_19
19, 19, 20
*ELEMENT, TYPE=B31, ELSET=Beam_20
20, 20, 21
** ... 160 like lines cut
*BEAM SECTION, ELSET=Beam_1, SECTION=CIRC, MATERIAL=MAT1
0.756721
*BEAM SECTION, ELSET=Beam_2, SECTION=CIRC, MATERIAL=MAT1
0.746182
*BEAM SECTION, ELSET=Beam_3, SECTION=CIRC, MATERIAL=MAT1
0.735177
*BEAM SECTION, ELSET=Beam_4, SECTION=CIRC, MATERIAL=MAT1
0.723654
*BEAM SECTION, ELSET=Beam_5, SECTION=CIRC, MATERIAL=MAT1
0.711552
*BEAM SECTION, ELSET=Beam_6, SECTION=CIRC, MATERIAL=MAT1
0.700113
*BEAM SECTION, ELSET=Beam_7, SECTION=CIRC, MATERIAL=MAT1
0.691068
*BEAM SECTION, ELSET=Beam_8, SECTION=CIRC, MATERIAL=MAT1
0.683316
*BEAM SECTION, ELSET=Beam_9, SECTION=CIRC, MATERIAL=MAT1
0.675291
*BEAM SECTION, ELSET=Beam_10, SECTION=CIRC, MATERIAL=MAT1
0.666970
*BEAM SECTION, ELSET=Beam_11, SECTION=CIRC, MATERIAL=MAT1
0.658324
*BEAM SECTION, ELSET=Beam_12, SECTION=CIRC, MATERIAL=MAT1
0.650205
*BEAM SECTION, ELSET=Beam_13, SECTION=CIRC, MATERIAL=MAT1
0.642824
*BEAM SECTION, ELSET=Beam_14, SECTION=CIRC, MATERIAL=MAT1
0.635328
*BEAM SECTION, ELSET=Beam_15, SECTION=CIRC, MATERIAL=MAT1
0.627557
*BEAM SECTION, ELSET=Beam_16, SECTION=CIRC, MATERIAL=MAT1
0.619486
*BEAM SECTION, ELSET=Beam_17, SECTION=CIRC, MATERIAL=MAT1
0.611415
*BEAM SECTION, ELSET=Beam_18, SECTION=CIRC, MATERIAL=MAT1
0.604281
*BEAM SECTION, ELSET=Beam_19, SECTION=CIRC, MATERIAL=MAT1
0.597846
*BEAM SECTION, ELSET=Beam_20, SECTION=CIRC, MATERIAL=MAT1
0.591195
** ... 160 like lines cut
*End Part
*Assembly, name=Assembly
*Instance, name=beam-1, part=GTM
*End Instance
*Nset, nset=fixed_nodes, instance=beam-1
1
*Nset, nset=moved_nodes, instance=beam-1

101
**
**
**
**
**
*End Assembly
*MATERIAL, NAME=MAT1
*ELASTIC
1.52e9,0.33
*BOUNDARY
fixed_nodes, 1, 6, 0.
*STEP, NAME=STEP-1, PERTURBATION
*STATIC
*CLOAD
moved_nodes,1,10000
*NODE PRINT
U
RF
*END STEP
