*Heading
Dimension: 22 x 1 x 1
*Preprint, echo=NO, model=NO, history=NO, contact=NO
**
** PARTS
**
*Part, name=beam
*Node
1, -2.5, 0.0, 0.0
2, 0.0, -2.5, 0.0
3, 2.5, 0.0, 0.0
4, 0.0, 2.5, 0.0
5, 0.0, 0.0, 2.5
6, 0.0, 0.0, -2.5
7, -1.875, -0.625, 0.0
8, -1.25, -1.25, 0.0
9, -0.625, -1.875, 0.0
10, 0.625, -1.875, 0.0
11, 1.25, -1.25, 0.0
12, 1.875, -0.625, 0.0
13, 1.875, 0.625, 0.0
14, 1.25, 1.25, 0.0
15, 0.625, 1.875, 0.0
16, -0.625, 1.875, 0.0
17, -1.25, 1.25, 0.0
18, -1.875, 0.625, 0.0
19, -0.625, 0.0, 1.875
20, -1.25, 0.0, 1.25
** ... 904 like lines cut
*Element, type=B31
1, 1, 7
2, 7, 8
3, 8, 9
4, 9, 2
5, 2, 10
6, 10, 11
7, 11, 12
8, 12, 3
9, 3, 13
10, 13, 14
11, 14, 15
12, 15, 4
13, 4, 16
14, 16, 17
15, 17, 18
16, 18, 1
17, 5, 19
18, 19, 20
19, 20, 21
20, 21, 1
** ... 1036 like lines cut
*Elset, elset=rod_section, generate
1, 1056, 1
*Orientation, name=Ori-1
1, 0, 0, 0, 1, 0
1, 0
*Beam Section, elset=rod_section, material=Graphite, temperature=GRADIENTS, section=RECT
0.05, 0.05
0, 0, -1
*MPC, MODE=NODE
BEAM,423,463
BEAM,381,421
BEAM,171,211
BEAM,717,757
BEAM,255,295
BEAM,87,127
BEAM,507,547
BEAM,45,85
BEAM,591,631
BEAM,843,883
BEAM,129,169
BEAM,759,799
BEAM,465,505
BEAM,633,673
BEAM,297,337
BEAM,339,379
BEAM,3,43
BEAM,213,253
BEAM,801,841
BEAM,549,589
BEAM,675,715
*End Part
*Assembly, name=Assembly
*Instance, name=beam-1, part=beam
*End Instance
*Nset, nset=fixed_nodes, instance=beam-1
463
*Nset, nset=moved_nodes, instance=beam-1
1, 887
*End Assembly
** MATERIALS
** 
*Material, name=Graphite
*Elastic
** 114 GPA,using Pa
86.6e9, 0.31
*Density
2266
*Material, name=Joints
*Elastic
** 114 GPA,using Pa
10.e9, 0.31
** 
** BOUNDARY CONDITIONS
** 
** Name: BC-1 Type: Symmetry/Antisymmetry/Encastre
*Boundary
fixed_nodes, ENCASTRE
**moved_nodes, 1,2,0.
**moved_nodes, 4,6,0.
** ----------------------------------------------------------------
** 
*Step, perturbation
*matrix generate, stiffness
*matrix output, stiffness
*End Step
*Step, perturbation
*matrix generate, mass
*matrix output, mass
*End Step
*Step, perturbation
*matrix generate, viscous damping
*matrix output, viscous damping
*End Step
**
*Step, name=end_load, nlgeom=YES
end load
*Static
.5,1.,1.e-08, .5
*Cload
moved_nodes, 2, 200.
*End Step
** 
*Step, name=frequency
frequency
*Frequency
50
*End Step
** ----------------------------------------------------------------
