*Heading
Stick model for GTM wing with voxel substructure
*Part, name=GTM
**
*Node
1, 75.368495, 31.830698, 7158.694654
2, 82.070252, 34.661080, 7795.244820
3, 88.772008, 37.491461, 8431.794987
4, 95.473764, 40.321843, 9068.345153
5, 102.175521, 43.152224, 9704.895320
6, 108.877277, 45.982605, 10341.445487
7, 115.579034, 48.812987, 10977.995653
8, 122.280790, 51.643368, 11614.545820
9, 128.982547, 54.473750, 12251.095987
10, 135.684303, 57.304131, 12887.646153
11, 142.386060, 60.134513, 13524.196320
12, 149.087816, 62.964894, 14160.746486
13, 155.789573, 65.795275, 14797.296653
14, 162.491329, 68.625657, 15433.846820
15, 169.193085, 71.456038, 16070.396986
16, 175.894842, 74.286420, 16706.947153
17, 182.596598, 77.116801, 17343.497319
18, 189.298355, 79.947183, 17980.047486
19, 196.000111, 82.777564, 18616.597653
20, 202.701868, 85.607945, 19253.147819
** ... 81 like lines cut
*ELEMENT, TYPE=B31, ELSET=Beams
1, 1, 2
2, 2, 3
3, 3, 4
4, 4, 5
5, 5, 6
6, 6, 7
7, 7, 8
8, 8, 9
9, 9, 10
10, 10, 11
11, 11, 12
12, 12, 13
13, 13, 14
14, 14, 15
15, 15, 16
16, 16, 17
17, 17, 18
18, 18, 19
19, 19, 20
20, 20, 21
** ... 80 like lines cut
*BEAM SECTION, ELSET=Beams, SECTION=CIRC, MATERIAL=MAT1
0.5
*End Part
*Assembly, name=Assembly
*Instance, name=beam-1, part=GTM
*End Instance
*Nset, nset=fixed_nodes, instance=beam-1
1
*Nset, nset=moved_nodes, instance=beam-1

101
**
**
**
**
**
*End Assembly
*MATERIAL, NAME=MAT1
*ELASTIC
10.6e6,0.33
*BOUNDARY
fixed_nodes, 1, 6, 0.
*STEP, NAME=STEP-1, PERTURBATION
*STATIC
*CLOAD
moved_nodes,2,100
*NODE PRINT
U
RF
*END STEP
